
.ac lin 10 1Hz 1Meg


.end
.control
run
.endc
