.model npn NPN( Vtf=4 Cjc=3.638p Nc=2 Tr=239.5n Ne=1.259 
+ Cje=4.493p Isc=0 Xtb=1.5 Rb=10 Rc=1 
+ Tf=301.2p Xti=3 Ikr=0 Bf=416.4 Fc=.5 
+ Ise=6.734f Br=.7371 Ikf=66.78m Mje=.2593 Mjc=.3085 
+ Vaf=74.03 Vjc=.75 Vje=.75 Xtf=2 Itf=.4 
+ Is=6.734f Eg=1.11 )
