.model 1n4007 D( CJO=1E-11 AF=1 EG=1.05743 IS=7.02767e-09 RS=0.0341512 
+ M=0.5 N=1.80803 BV=1000 FC=0.5 XTI=5 
+ TT=1E-07 VJ=0.7 IBV=5e-08 KF=0 )