
.ac lin 20 1Hz 10Meg


.end
.control
run
.endc
