.model 1n4007 D( VJ=0.7 CJO=1E-11 RS=0.0341512 IS=7.02767e-09 AF=1 
+ M=0.5 N=1.80803 BV=1000 FC=0.5 IBV=5e-08 
+ TT=1E-07 EG=1.05743 XTI=5 KF=0 )